New England/PSSE Cases/Medium/Fall106Tight.RAW
 0,    100.00, 33, 0, 0, 60.00       / August 22, 2017 10:43:48; Simulator Version 19; BuildDate 2016_7_14


    1,'1           ', 345.0000,2,   1,   1,   1,1.11700, -22.0353, 1.06000, 1.00000, 1.06000, 1.00000
    2,'2           ', 345.0000,1,   1,   1,   1,1.03922, -22.0499, 1.04000, 0.95000, 1.04000, 0.95000
    3,'3           ', 138.0000,2,   1,   1,   1,1.02000, -11.4504, 1.06000, 1.00000, 1.06000, 1.00000
    4,'4           ', 138.0000,1,   1,   1,   1,0.98882, -22.5255, 1.04000, 0.95000, 1.04000, 0.95000
    5,'5           ', 230.0000,1,   1,   1,   1,0.99243, -19.9824, 1.04000, 0.95000, 1.04000, 0.95000
    6,'6           ', 138.0000,1,   1,   1,   1,1.01330, -10.2440, 1.04000, 0.95000, 1.04000, 0.95000
    7,'7           ', 138.0000,2,   1,   1,   1,1.02000, -19.2321, 1.06000, 1.00000, 1.06000, 1.00000
    8,'8           ', 230.0000,2,   1,   1,   1,1.02000, -17.5230, 1.06000, 1.00000, 1.06000, 1.00000
    9,'9           ', 345.0000,1,   1,   1,   1,1.02963, -18.8632, 1.04000, 0.95000, 1.04000, 0.95000
   10,'10          ', 138.0000,3,   1,   1,   1,1.02000,   0.0000, 1.06000, 1.00000, 1.06000, 1.00000
   11,'11          ', 138.0000,1,   1,   1,   1,1.01752,  -1.0528, 1.04000, 0.95000, 1.04000, 0.95000
   12,'12          ', 138.0000,1,   1,   1,   1,1.01695,  -1.8964, 1.04000, 0.95000, 1.04000, 0.95000
   13,'13          ', 345.0000,1,   1,   1,   1,1.01725,  -4.0856, 1.04000, 0.95000, 1.04000, 0.95000
   14,'14          ', 230.0000,1,   1,   1,   1,1.01636, -10.9031, 1.04000, 0.95000, 1.04000, 0.95000
   15,'15          ', 230.0000,1,   1,   1,   1,1.01032, -14.7817, 1.04000, 0.95000, 1.04000, 0.95000
   16,'16          ', 138.0000,1,   1,   1,   1,1.00792, -17.9820, 1.04000, 0.95000, 1.04000, 0.95000
   17,'17          ', 138.0000,1,   1,   1,   1,0.99153, -20.2075, 1.04000, 0.95000, 1.04000, 0.95000
   18,'18          ', 138.0000,1,   1,   1,   1,0.98987, -19.3500, 1.04000, 0.95000, 1.04000, 0.95000
   19,'19          ', 138.0000,1,   1,   1,   1,0.99589, -17.8024, 1.04000, 0.95000, 1.04000, 0.95000
   20,'20          ',  69.0000,1,   1,   1,   1,1.00409, -15.2310, 1.04000, 0.95000, 1.04000, 0.95000
   21,'21          ', 138.0000,1,   1,   1,   1,0.98803, -20.7985, 1.04000, 0.95000, 1.04000, 0.95000
   22,'22          ', 230.0000,1,   1,   1,   1,0.99930,  -7.5631, 1.04000, 0.95000, 1.04000, 0.95000
   23,'23          ', 230.0000,1,   1,   1,   1,1.00129,  -9.5536, 1.04000, 0.95000, 1.04000, 0.95000
   24,'24          ', 230.0000,2,   1,   1,   1,1.01518, -12.4382, 1.06000, 1.00000, 1.06000, 1.00000
   25,'25          ', 230.0000,1,   1,   1,   1,1.01167, -22.0165, 1.04000, 0.95000, 1.04000, 0.95000
   26,'26          ', 345.0000,2,   1,   1,   1,1.02000, -31.6206, 1.06000, 1.00000, 1.06000, 1.00000
   27,'27          ', 230.0000,1,   1,   1,   1,0.99883, -29.7646, 1.04000, 0.95000, 1.04000, 0.95000
   28,'28          ', 138.0000,2,   1,   1,   1,1.02000, -26.0401, 1.06000, 1.00000, 1.06000, 1.00000
   29,'29          ', 138.0000,1,   1,   1,   1,1.01699, -23.8863, 1.04000, 0.95000, 1.04000, 0.95000
   30,'30          ',  14.0000,2,   1,   1,   1,1.02846, -20.5111, 1.06000, 1.00000, 1.06000, 1.00000
   31,'31          ',  14.0000,2,   1,   1,   1,1.02000,  -6.0032, 1.06000, 1.00000, 1.06000, 1.00000
   32,'32          ',  14.0000,2,   1,   1,   1,1.02000,   2.2781, 1.06000, 1.00000, 1.06000, 1.00000
   33,'33          ',  14.0000,2,   1,   1,   1,1.02000, -14.9319, 1.06000, 1.00000, 1.06000, 1.00000
   34,'34          ',  14.0000,2,   1,   1,   1,1.02000, -12.1633, 1.06000, 1.00000, 1.06000, 1.00000
   35,'35          ',  14.0000,2,   1,   1,   1,1.02000,   1.9020, 1.06000, 1.00000, 1.06000, 1.00000
   36,'36          ',  14.0000,2,   1,   1,   1,1.02000,  -6.8626, 1.06000, 1.00000, 1.06000, 1.00000
   37,'37          ',  14.0000,2,   1,   1,   1,1.02000, -20.3939, 1.06000, 1.00000, 1.06000, 1.00000
   38,'38          ',  14.0000,2,   1,   1,   1,1.02000, -21.6171, 1.06000, 1.00000, 1.06000, 1.00000
   39,'39          ', 345.0000,1,   1,   1,   1,1.02653, -28.9031, 1.04000, 0.95000, 1.04000, 0.95000
   40,'40          ', 345.0000,1,   1,   1,   1,1.01320, -32.7919, 1.04000, 0.95000, 1.04000, 0.95000
   41,'41          ', 345.0000,1,   1,   1,   1,1.00200, -29.2166, 1.04000, 0.95000, 1.04000, 0.95000
   42,'42          ', 345.0000,1,   1,   1,   1,1.02650, -34.6672, 1.04000, 0.95000, 1.04000, 0.95000
   43,'43          ', 345.0000,1,   1,   1,   1,1.01861, -31.8364, 1.04000, 0.95000, 1.04000, 0.95000
   44,'44          ', 230.0000,1,   1,   1,   1,1.01153, -20.8680, 1.04000, 0.95000, 1.04000, 0.95000
   45,'45          ', 345.0000,1,   1,   1,   1,1.01653, -20.6427, 1.04000, 0.95000, 1.04000, 0.95000
   46,'46          ', 138.0000,1,   1,   1,   1,0.97560, -22.4969, 1.04000, 0.95000, 1.04000, 0.95000
   47,'47          ', 138.0000,1,   1,   1,   1,0.94568, -25.6112, 1.04000, 0.95000, 1.04000, 0.95000
   48,'48          ', 345.0000,1,   1,   1,   1,0.98866, -23.0209, 1.04000, 0.95000, 1.04000, 0.95000
   49,'49          ', 138.0000,2,   1,   1,   1,1.02000, -16.9365, 1.06000, 1.00000, 1.06000, 1.00000
   50,'50          ', 138.0000,1,   1,   1,   1,0.99386, -21.4865, 1.04000, 0.95000, 1.04000, 0.95000
   51,'51          ', 138.0000,1,   1,   1,   1,0.98764, -25.2178, 1.04000, 0.95000, 1.04000, 0.95000
   52,'52          ', 345.0000,2,   1,   1,   1,1.02000, -20.4268, 1.06000, 1.00000, 1.06000, 1.00000
   53,'53          ', 138.0000,1,   1,   1,   1,0.98316, -24.5044, 1.04000, 0.95000, 1.04000, 0.95000
   54,'54          ', 230.0000,2,   1,   1,   1,1.02000, -16.9493, 1.06000, 1.00000, 1.06000, 1.00000
   55,'55          ', 230.0000,1,   1,   1,   1,1.01011, -20.2470, 1.04000, 0.95000, 1.04000, 0.95000
   56,'56          ', 345.0000,2,   1,   1,   1,1.02000, -10.8684, 1.06000, 1.00000, 1.06000, 1.00000
   57,'57          ', 138.0000,1,   1,   1,   1,0.96185, -24.2542, 1.04000, 0.95000, 1.04000, 0.95000
   58,'58          ', 345.0000,1,   1,   1,   1,1.00364, -11.8016, 1.04000, 0.95000, 1.04000, 0.95000
   59,'59          ', 345.0000,1,   1,   1,   1,1.01454, -14.0010, 1.04000, 0.95000, 1.04000, 0.95000
   60,'60          ', 138.0000,1,   1,   1,   1,0.96398, -22.6077, 1.04000, 0.95000, 1.04000, 0.95000
   61,'61          ', 230.0000,1,   1,   1,   1,1.01409, -16.4870, 1.04000, 0.95000, 1.04000, 0.95000
   62,'62          ', 345.0000,1,   1,   1,   1,0.99828, -12.6020, 1.04000, 0.95000, 1.04000, 0.95000
   63,'63          ', 138.0000,1,   1,   1,   1,0.95987, -24.0742, 1.04000, 0.95000, 1.04000, 0.95000
   64,'64          ', 138.0000,1,   1,   1,   1,0.97607, -17.8323, 1.04000, 0.95000, 1.04000, 0.95000
   65,'65          ', 138.0000,1,   1,   1,   1,1.00380, -19.8219, 1.04000, 0.95000, 1.04000, 0.95000
   66,'66          ', 345.0000,1,   1,   1,   1,1.00708, -11.5584, 1.04000, 0.95000, 1.04000, 0.95000
   67,'67          ', 138.0000,1,   1,   1,   1,0.98188, -25.3158, 1.04000, 0.95000, 1.04000, 0.95000
   68,'68          ', 138.0000,1,   1,   1,   1,0.99125, -24.0060, 1.04000, 0.95000, 1.04000, 0.95000
   69,'69          ', 345.0000,2,   1,   1,   1,1.02000,  -4.1805, 1.06000, 1.00000, 1.06000, 1.00000
   70,'70          ', 138.0000,1,   1,   1,   1,1.01106,  -6.0962, 1.04000, 0.95000, 1.04000, 0.95000
   71,'71          ', 345.0000,1,   1,   1,   1,1.01209, -11.0084, 1.04000, 0.95000, 1.04000, 0.95000
   72,'72          ', 138.0000,2,   1,   1,   1,0.98939, -25.1354, 1.06000, 1.00000, 1.06000, 1.00000
   73,'73          ', 138.0000,1,   1,   1,   1,0.98753, -25.2148, 1.04000, 0.95000, 1.04000, 0.95000
   74,'74          ', 345.0000,1,   1,   1,   1,1.00063, -20.7485, 1.04000, 0.95000, 1.04000, 0.95000
   75,'75          ', 138.0000,1,   1,   1,   1,0.98077, -22.8540, 1.04000, 0.95000, 1.04000, 0.95000
   76,'76          ', 345.0000,2,   1,   1,   1,1.02000, -10.0717, 1.06000, 1.00000, 1.06000, 1.00000
   77,'77          ', 138.0000,1,   1,   1,   1,0.99940, -29.5635, 1.04000, 0.95000, 1.04000, 0.95000
   78,'78          ', 345.0000,2,   1,   1,   1,1.03925, -35.9358, 1.06000, 1.00000, 1.06000, 1.00000
   79,'79          ', 345.0000,1,   1,   1,   1,1.06488, -43.1692, 1.04000, 0.95000, 1.04000, 0.95000
   80,'80          ', 345.0000,2,   1,   1,   1,1.04016, -38.9944, 1.06000, 1.00000, 1.06000, 1.00000
   81,'81          ', 345.0000,1,   1,   1,   1,1.03025, -37.1588, 1.04000, 0.95000, 1.04000, 0.95000
   82,'82          ', 345.0000,2,   1,   1,   1,1.02234, -31.4776, 1.06000, 1.00000, 1.06000, 1.00000
   83,'83          ', 345.0000,1,   1,   1,   1,1.02424, -30.3377, 1.04000, 0.95000, 1.04000, 0.95000
   84,'84          ', 138.0000,2,   1,   1,   1,1.02000, -27.1102, 1.06000, 1.00000, 1.06000, 1.00000
   85,'85          ', 230.0000,1,   1,   1,   1,1.00068, -28.8931, 1.04000, 0.95000, 1.04000, 0.95000
   86,'86          ', 138.0000,1,   1,   1,   1,0.99035, -28.3783, 1.04000, 0.95000, 1.04000, 0.95000
   87,'87          ', 345.0000,1,   1,   1,   1,1.06960, -43.3604, 1.04000, 0.95000, 1.04000, 0.95000
   88,'88          ', 138.0000,1,   1,   1,   1,1.01242, -27.0961, 1.04000, 0.95000, 1.04000, 0.95000
   89,'89          ', 138.0000,1,   1,   1,   1,0.96449, -33.5581, 1.04000, 0.95000, 1.04000, 0.95000
   90,'90          ', 230.0000,1,   1,   1,   1,0.99242, -10.2178, 1.04000, 0.95000, 1.04000, 0.95000
   91,'91          ', 230.0000,1,   1,   1,   1,0.98041, -11.9589, 1.04000, 0.95000, 1.04000, 0.95000
   92,'92          ', 345.0000,1,   1,   1,   1,0.98972, -12.3086, 1.04000, 0.95000, 1.04000, 0.95000
   93,'93          ', 345.0000,1,   1,   1,   1,0.99127, -13.6050, 1.04000, 0.95000, 1.04000, 0.95000
   94,'94          ', 138.0000,1,   1,   1,   1,0.99634, -19.7016, 1.04000, 0.95000, 1.04000, 0.95000
   95,'95          ', 138.0000,1,   1,   1,   1,0.98596, -19.1179, 1.04000, 0.95000, 1.04000, 0.95000
   96,'96          ', 138.0000,1,   1,   1,   1,0.98635, -18.6647, 1.04000, 0.95000, 1.04000, 0.95000
   97,'97          ', 345.0000,1,   1,   1,   1,0.99689, -15.8991, 1.04000, 0.95000, 1.04000, 0.95000
   98,'98          ', 345.0000,1,   1,   1,   1,1.00931, -16.0754, 1.04000, 0.95000, 1.04000, 0.95000
   99,'99          ', 345.0000,1,   1,   1,   1,0.99070, -17.4898, 1.04000, 0.95000, 1.04000, 0.95000
  100,'100         ', 138.0000,1,   1,   1,   1,0.98521,  -9.2262, 1.04000, 0.95000, 1.04000, 0.95000
  101,'101         ', 345.0000,1,   1,   1,   1,0.98866, -13.9573, 1.04000, 0.95000, 1.04000, 0.95000
  102,'102         ', 138.0000,1,   1,   1,   1,0.98666, -20.2561, 1.04000, 0.95000, 1.04000, 0.95000
  103,'103         ', 138.0000,2,   1,   1,   1,1.02000, -17.8028, 1.06000, 1.00000, 1.06000, 1.00000
  104,'104         ', 138.0000,1,   1,   1,   1,0.97883, -20.6241, 1.04000, 0.95000, 1.04000, 0.95000
  105,'105         ', 138.0000,1,   1,   1,   1,0.98837, -19.2053, 1.04000, 0.95000, 1.04000, 0.95000
  106,'106         ', 138.0000,1,   1,   1,   1,0.97831, -21.4338, 1.04000, 0.95000, 1.04000, 0.95000
  107,'107         ', 138.0000,1,   1,   1,   1,0.97980, -20.9359, 1.04000, 0.95000, 1.04000, 0.95000
  108,'108         ', 230.0000,1,   1,   1,   1,0.97883, -20.8132, 1.04000, 0.95000, 1.04000, 0.95000
  109,'109         ', 138.0000,1,   1,   1,   1,0.97831, -22.8403, 1.04000, 0.95000, 1.04000, 0.95000
  110,'110         ', 138.0000,1,   1,   1,   1,0.98902, -18.4386, 1.04000, 0.95000, 1.04000, 0.95000
  111,'111         ', 345.0000,1,   1,   1,   1,0.98932, -18.7837, 1.04000, 0.95000, 1.04000, 0.95000
  112,'112         ', 138.0000,1,   1,   1,   1,0.96629, -23.2944, 1.04000, 0.95000, 1.04000, 0.95000
  113,'113         ', 138.0000,1,   1,   1,   1,0.95885, -24.0594, 1.04000, 0.95000, 1.04000, 0.95000
  114,'114         ', 138.0000,1,   1,   1,   1,0.98540, -19.9877, 1.04000, 0.95000, 1.04000, 0.95000
  115,'115         ', 345.0000,1,   1,   1,   1,0.99272, -11.8647, 1.04000, 0.95000, 1.04000, 0.95000
  116,'116         ', 230.0000,1,   1,   1,   1,0.99524, -20.8822, 1.04000, 0.95000, 1.04000, 0.95000
  117,'117         ', 138.0000,1,   1,   1,   1,0.99300, -21.6053, 1.04000, 0.95000, 1.04000, 0.95000
  118,'118         ', 138.0000,1,   1,   1,   1,0.98625, -19.7421, 1.04000, 0.95000, 1.04000, 0.95000
  119,'119         ', 138.0000,1,   1,   1,   1,0.98198, -20.5587, 1.04000, 0.95000, 1.04000, 0.95000
  120,'120         ', 230.0000,2,   1,   1,   1,1.00355, -20.6727, 1.06000, 1.00000, 1.06000, 1.00000
  121,'121         ', 230.0000,1,   1,   1,   1,0.99934, -21.1456, 1.04000, 0.95000, 1.04000, 0.95000
  122,'122         ', 138.0000,1,   1,   1,   1,0.97862, -23.1218, 1.04000, 0.95000, 1.04000, 0.95000
  123,'123         ', 230.0000,1,   1,   1,   1,0.99889, -20.1703, 1.04000, 0.95000, 1.04000, 0.95000
  124,'124         ', 230.0000,1,   1,   1,   1,0.97632, -24.2831, 1.04000, 0.95000, 1.04000, 0.95000
  125,'125         ', 138.0000,1,   1,   1,   1,0.97954, -22.1952, 1.04000, 0.95000, 1.04000, 0.95000
  126,'126         ', 230.0000,1,   1,   1,   1,0.98309, -23.2869, 1.04000, 0.95000, 1.04000, 0.95000
  127,'127         ', 230.0000,1,   1,   1,   1,0.98069, -23.9798, 1.04000, 0.95000, 1.04000, 0.95000
  128,'128         ', 138.0000,2,   1,   1,   1,1.02000, -15.1486, 1.06000, 1.00000, 1.06000, 1.00000
  129,'129         ', 138.0000,1,   1,   1,   1,0.97623, -22.3075, 1.04000, 0.95000, 1.04000, 0.95000
  130,'130         ', 138.0000,2,   1,   1,   1,1.01987, -17.6020, 1.06000, 1.00000, 1.06000, 1.00000
  131,'131         ', 138.0000,1,   1,   1,   1,0.96919, -23.2814, 1.04000, 0.95000, 1.04000, 0.95000
  132,'132         ', 230.0000,1,   1,   1,   1,0.99238, -21.7372, 1.04000, 0.95000, 1.04000, 0.95000
  133,'133         ', 230.0000,1,   1,   1,   1,0.99333, -22.6497, 1.04000, 0.95000, 1.04000, 0.95000
  134,'134         ', 230.0000,1,   1,   1,   1,0.98737, -21.6550, 1.04000, 0.95000, 1.04000, 0.95000
  135,'135         ', 345.0000,1,   1,   1,   1,1.00161, -18.6117, 1.04000, 0.95000, 1.04000, 0.95000
  136,'136         ', 138.0000,1,   1,   1,   1,0.98211, -20.2393, 1.04000, 0.95000, 1.04000, 0.95000
  137,'137         ', 345.0000,1,   1,   1,   1,1.00681, -17.6077, 1.04000, 0.95000, 1.04000, 0.95000
  138,'138         ', 345.0000,1,   1,   1,   1,0.98914, -17.9429, 1.04000, 0.95000, 1.04000, 0.95000
  139,'139         ', 345.0000,1,   1,   1,   1,1.03278, -23.1814, 1.04000, 0.95000, 1.04000, 0.95000
  140,'140         ', 138.0000,1,   1,   1,   1,0.99611,  -7.8605, 1.04000, 0.95000, 1.04000, 0.95000
  141,'141         ', 345.0000,2,   1,   1,   1,1.02000,  -4.2197, 1.06000, 1.00000, 1.06000, 1.00000
  142,'142         ', 230.0000,1,   1,   1,   1,0.98071, -23.7297, 1.04000, 0.95000, 1.04000, 0.95000
  143,'143         ', 230.0000,2,   1,   1,   1,1.02000, -16.8910, 1.06000, 1.00000, 1.06000, 1.00000
  144,'144         ', 230.0000,1,   1,   1,   1,1.01231, -18.1756, 1.04000, 0.95000, 1.04000, 0.95000
  145,'145         ', 138.0000,1,   1,   1,   1,0.99468, -18.8077, 1.04000, 0.95000, 1.04000, 0.95000
  146,'146         ', 345.0000,2,   1,   1,   1,1.01105, -16.9301, 1.06000, 1.00000, 1.06000, 1.00000
  147,'147         ', 138.0000,1,   1,   1,   1,0.97922, -21.0566, 1.04000, 0.95000, 1.04000, 0.95000
  148,'148         ', 345.0000,1,   1,   1,   1,0.99209, -13.0720, 1.04000, 0.95000, 1.04000, 0.95000
  149,'149         ', 138.0000,2,   1,   1,   1,1.02000, -16.6011, 1.06000, 1.00000, 1.06000, 1.00000
  150,'150         ', 345.0000,1,   1,   1,   1,0.98180, -24.3333, 1.04000, 0.95000, 1.04000, 0.95000
  151,'151         ', 345.0000,1,   1,   1,   1,1.00842, -17.4229, 1.04000, 0.95000, 1.04000, 0.95000
  152,'152         ', 138.0000,1,   1,   1,   1,0.96494, -23.3664, 1.04000, 0.95000, 1.04000, 0.95000
  153,'153         ', 345.0000,1,   1,   1,   1,0.99910, -19.0581, 1.04000, 0.95000, 1.04000, 0.95000
  154,'154         ', 230.0000,1,   1,   1,   1,0.99317, -28.2945, 1.04000, 0.95000, 1.04000, 0.95000
  155,'155         ', 138.0000,1,   1,   1,   1,0.97052, -28.7004, 1.04000, 0.95000, 1.04000, 0.95000
  156,'156         ', 345.0000,1,   1,   1,   1,1.00649, -22.6068, 1.04000, 0.95000, 1.04000, 0.95000
  157,'157         ', 138.0000,2,   1,   1,   1,1.02000, -20.1759, 1.06000, 1.00000, 1.06000, 1.00000
  158,'158         ', 138.0000,1,   1,   1,   1,0.99244, -24.7610, 1.04000, 0.95000, 1.04000, 0.95000
  159,'159         ', 345.0000,1,   1,   1,   1,1.00726, -26.4162, 1.04000, 0.95000, 1.04000, 0.95000
  160,'160         ', 230.0000,1,   1,   1,   1,0.97946, -30.8939, 1.04000, 0.95000, 1.04000, 0.95000
  161,'161         ', 138.0000,1,   1,   1,   1,0.99791, -24.8032, 1.04000, 0.95000, 1.04000, 0.95000
  162,'162         ', 345.0000,2,   1,   1,   1,1.02000, -17.9961, 1.06000, 1.00000, 1.06000, 1.00000
  163,'163         ', 230.0000,1,   1,   1,   1,1.00490, -22.4542, 1.04000, 0.95000, 1.04000, 0.95000
  164,'164         ', 138.0000,1,   1,   1,   1,0.98391, -23.1638, 1.04000, 0.95000, 1.04000, 0.95000
  165,'165         ', 230.0000,2,   1,   1,   1,1.02000, -15.1336, 1.06000, 1.00000, 1.06000, 1.00000
  166,'166         ', 138.0000,2,   1,   1,   1,1.02000, -20.6807, 1.06000, 1.00000, 1.06000, 1.00000
  167,'167         ', 345.0000,1,   1,   1,   1,1.03673, -34.5092, 1.04000, 0.95000, 1.04000, 0.95000
  168,'168         ', 230.0000,1,   1,   1,   1,0.99524, -23.1945, 1.04000, 0.95000, 1.04000, 0.95000
  169,'169         ', 138.0000,1,   1,   1,   1,0.99411, -24.8395, 1.04000, 0.95000, 1.04000, 0.95000
  170,'170         ', 138.0000,1,   1,   1,   1,0.96268, -11.1221, 1.04000, 0.95000, 1.04000, 0.95000
  171,'171         ', 138.0000,1,   1,   1,   1,0.97028, -10.7209, 1.04000, 0.95000, 1.04000, 0.95000
  172,'172         ', 138.0000,1,   1,   1,   1,0.98519,  -8.1360, 1.04000, 0.95000, 1.04000, 0.95000
  173,'173         ', 138.0000,1,   1,   1,   1,0.98342,  -7.6888, 1.04000, 0.95000, 1.04000, 0.95000
  174,'174         ', 345.0000,1,   1,   1,   1,1.01175, -12.4782, 1.04000, 0.95000, 1.04000, 0.95000
  175,'175         ', 138.0000,2,   1,   1,   1,1.02000, -11.9429, 1.06000, 1.00000, 1.06000, 1.00000
  176,'176         ', 345.0000,2,   1,   1,   1,1.02000, -16.8994, 1.06000, 1.00000, 1.06000, 1.00000
  177,'177         ', 230.0000,1,   1,   1,   1,1.00681, -13.5495, 1.04000, 0.95000, 1.04000, 0.95000
  178,'178         ', 138.0000,1,   1,   1,   1,0.99537, -16.5166, 1.04000, 0.95000, 1.04000, 0.95000
  179,'179         ', 138.0000,1,   1,   1,   1,0.99453, -16.5780, 1.04000, 0.95000, 1.04000, 0.95000
  180,'180         ', 345.0000,1,   1,   1,   1,1.01176, -12.5301, 1.04000, 0.95000, 1.04000, 0.95000
  181,'181         ', 345.0000,1,   1,   1,   1,1.03505, -16.1883, 1.04000, 0.95000, 1.04000, 0.95000
  182,'182         ', 345.0000,1,   1,   1,   1,1.00200, -20.4592, 1.04000, 0.95000, 1.04000, 0.95000
  183,'183         ', 345.0000,1,   1,   1,   1,1.00963, -20.3598, 1.04000, 0.95000, 1.04000, 0.95000
  184,'184         ', 230.0000,1,   1,   1,   1,1.01541, -11.9964, 1.04000, 0.95000, 1.04000, 0.95000
  185,'185         ', 345.0000,1,   1,   1,   1,1.01112, -10.2771, 1.04000, 0.95000, 1.04000, 0.95000
  186,'186         ', 345.0000,1,   1,   1,   1,1.00875, -20.7159, 1.04000, 0.95000, 1.04000, 0.95000
  187,'187         ', 345.0000,1,   1,   1,   1,1.01945, -18.7807, 1.04000, 0.95000, 1.04000, 0.95000
  188,'188         ', 345.0000,1,   1,   1,   1,1.01766,  -3.5465, 1.04000, 0.95000, 1.04000, 0.95000
  189,'189         ', 345.0000,1,   1,   1,   1,1.01745,  -4.1285, 1.04000, 0.95000, 1.04000, 0.95000
  190,'190         ', 345.0000,1,   1,   1,   1,1.01638,  -9.3713, 1.04000, 0.95000, 1.04000, 0.95000
  191,'191         ', 345.0000,1,   1,   1,   1,1.01771, -13.2098, 1.04000, 0.95000, 1.04000, 0.95000
  192,'192         ', 230.0000,1,   1,   1,   1,1.01221, -17.3383, 1.04000, 0.95000, 1.04000, 0.95000
  193,'193         ', 345.0000,1,   1,   1,   1,1.01553, -16.4049, 1.04000, 0.95000, 1.04000, 0.95000
  194,'194         ', 345.0000,1,   1,   1,   1,1.01366, -18.3074, 1.04000, 0.95000, 1.04000, 0.95000
  195,'195         ', 230.0000,1,   1,   1,   1,0.98646, -19.5934, 1.04000, 0.95000, 1.04000, 0.95000
  196,'196         ', 345.0000,1,   1,   1,   1,0.99001, -18.0076, 1.04000, 0.95000, 1.04000, 0.95000
  197,'197         ', 230.0000,1,   1,   1,   1,0.99297, -20.2459, 1.04000, 0.95000, 1.04000, 0.95000
  198,'198         ', 345.0000,1,   1,   1,   1,0.99247, -17.8208, 1.04000, 0.95000, 1.04000, 0.95000
  199,'199         ', 345.0000,1,   1,   1,   1,0.99640, -11.3076, 1.04000, 0.95000, 1.04000, 0.95000
  200,'200         ', 345.0000,1,   1,   1,   1,1.01072, -14.0507, 1.04000, 0.95000, 1.04000, 0.95000
...
0 / END OF BUS DATA, BEGIN LOAD DATA
    1,'1 ',1,   1,   1,     0.000,     0.000,     0.000,     0.000,     0.000,     0.000,   1,1
    2,'1 ',1,   1,   1,    97.818,    26.804,     0.000,     0.000,     0.000,     0.000,   1,1
    3,'1 ',1,   1,   1,     0.000,     0.000,     0.000,     0.000,     0.000,     0.000,   1,1
    4,'1 ',1,   1,   1,    70.002,    17.291,     0.000,     0.000,     0.000,     0.000,   1,1
    5,'1 ',1,   1,   1,    74.911,    26.861,     0.000,     0.000,     0.000,     0.000,   1,1
    6,'1 ',1,   1,   1,    70.058,    22.370,     0.000,     0.000,     0.000,     0.000,   1,1
    7,'1 ',1,   1,   1,   108.602,    41.687,     0.000,     0.000,     0.000,     0.000,   1,1
    8,'1 ',1,   1,   1,   100.234,    29.375,     0.000,     0.000,     0.000,     0.000,   1,1
    9,'1 ',1,   1,   1,     0.000,     0.000,     0.000,     0.000,     0.000,     0.000,   1,1
   10,'1 ',1,   1,   1,    70.734,    18.590,     0.000,     0.000,     0.000,     0.000,   1,1
   11,'1 ',1,   1,   1,     0.000,     0.000,     0.000,     0.000,     0.000,     0.000,   1,1
   12,'1 ',1,   1,   1,     2.111,     0.622,     0.000,     0.000,     0.000,     0.000,   1,1
   13,'1 ',1,   1,   1,     0.000,     0.000,     0.000,     0.000,     0.000,     0.000,   1,1
   14,'1 ',1,   1,   1,    97.385,    27.814,     0.000,     0.000,     0.000,     0.000,   1,1
   15,'1 ',1,   1,   1,   120.951,    27.766,     0.000,     0.000,     0.000,     0.000,   1,1
   16,'1 ',1,   1,   1,   143.268,    32.919,     0.000,     0.000,     0.000,     0.000,   1,1
   17,'1 ',1,   1,   1,    69.280,    20.015,     0.000,     0.000,     0.000,     0.000,   1,1
   18,'1 ',1,   1,   1,    81.266,    20.485,     0.000,     0.000,     0.000,     0.000,   1,1
   19,'1 ',1,   1,   1,    85.589,    24.130,     0.000,     0.000,     0.000,     0.000,   1,1
   20,'1 ',1,   1,   1,    82.566,    23.822,     0.000,     0.000,     0.000,     0.000,   1,1
   21,'1 ',1,   1,   1,   123.705,    31.364,     0.000,     0.000,     0.000,     0.000,   1,1
   22,'1 ',1,   1,   1,   110.518,    32.845,     0.000,     0.000,     0.000,     0.000,   1,1
   23,'1 ',1,   1,   1,    79.281,    21.615,     0.000,     0.000,     0.000,     0.000,   1,1
   24,'1 ',1,   1,   1,    91.585,    30.314,     0.000,     0.000,     0.000,     0.000,   1,1
   25,'1 ',1,   1,   1,    67.593,    15.137,     0.000,     0.000,     0.000,     0.000,   1,1
   26,'1 ',1,   1,   1,    80.970,    20.449,     0.000,     0.000,     0.000,     0.000,   1,1
   27,'1 ',1,   1,   1,    80.578,    21.161,     0.000,     0.000,     0.000,     0.000,   1,1
   28,'1 ',1,   1,   1,   125.491,    33.394,     0.000,     0.000,     0.000,     0.000,   1,1
   29,'1 ',1,   1,   1,    73.170,    19.094,     0.000,     0.000,     0.000,     0.000,   1,1
   30,'1 ',1,   1,   1,     0.000,     0.000,     0.000,     0.000,     0.000,     0.000,   1,1
   31,'1 ',1,   1,   1,     0.000,     0.000,     0.000,     0.000,     0.000,     0.000,   1,1
   32,'1 ',1,   1,   1,     0.000,     0.000,     0.000,     0.000,     0.000,     0.000,   1,1
   33,'1 ',1,   1,   1,   114.446,    29.283,     0.000,     0.000,     0.000,     0.000,   1,1
   34,'1 ',1,   1,   1,    65.582,    19.236,     0.000,     0.000,     0.000,     0.000,   1,1
   35,'1 ',1,   1,   1,     0.000,     0.000,     0.000,     0.000,     0.000,     0.000,   1,1
   36,'1 ',1,   1,   1,     0.000,     0.000,     0.000,     0.000,     0.000,     0.000,   1,1
   37,'1 ',1,   1,   1,     0.000,     0.000,     0.000,     0.000,     0.000,     0.000,   1,1
   38,'1 ',1,   1,   1,     0.000,     0.000,     0.000,     0.000,     0.000,     0.000,   1,1
   39,'1 ',1,   1,   1,    74.106,    20.987,     0.000,     0.000,     0.000,     0.000,   1,1
   40,'1 ',1,   1,   1,    76.121,    23.430,     0.000,     0.000,     0.000,     0.000,   1,1
   41,'1 ',1,   1,   1,   103.549,    24.864,     0.000,     0.000,     0.000,     0.000,   1,1
   42,'1 ',1,   1,   1,   116.570,    32.292,     0.000,     0.000,     0.000,     0.000,   1,1
   43,'1 ',1,   1,   1,   101.273,    28.826,     0.000,     0.000,     0.000,     0.000,   1,1
   44,'1 ',1,   1,   1,    64.213,    17.771,     0.000,     0.000,     0.000,     0.000,   1,1
   45,'1 ',1,   1,   1,    99.539,    24.989,     0.000,     0.000,     0.000,     0.000,   1,1
   46,'1 ',1,   1,   1,    88.411,    24.417,     0.000,     0.000,     0.000,     0.000,   1,1
   47,'1 ',1,   1,   1,    78.203,    22.238,     0.000,     0.000,     0.000,     0.000,   1,1
   48,'1 ',1,   1,   1,    97.088,    29.344,     0.000,     0.000,     0.000,     0.000,   1,1
   49,'1 ',1,   1,   1,    56.553,    18.615,     0.000,     0.000,     0.000,     0.000,   1,1
   50,'1 ',1,   1,   1,    92.668,    24.582,     0.000,     0.000,     0.000,     0.000,   1,1
   51,'1 ',1,   1,   1,    77.448,    25.524,     0.000,     0.000,     0.000,     0.000,   1,1
   52,'1 ',1,   1,   1,   103.145,    29.053,     0.000,     0.000,     0.000,     0.000,   1,1
   53,'1 ',1,   1,   1,   159.500,    39.856,     0.000,     0.000,     0.000,     0.000,   1,1
   54,'1 ',1,   1,   1,    59.589,    23.061,     0.000,     0.000,     0.000,     0.000,   1,1
   55,'1 ',1,   1,   1,    97.385,    25.554,     0.000,     0.000,     0.000,     0.000,   1,1
   56,'1 ',1,   1,   1,   107.626,    30.543,     0.000,     0.000,     0.000,     0.000,   1,1
   57,'1 ',1,   1,   1,    51.307,    16.274,     0.000,     0.000,     0.000,     0.000,   1,1
   58,'1 ',1,   1,   1,   130.424,    43.637,     0.000,     0.000,     0.000,     0.000,   1,1
   59,'1 ',1,   1,   1,    74.503,    26.371,     0.000,     0.000,     0.000,     0.000,   1,1
   60,'1 ',1,   1,   1,    85.521,    26.084,     0.000,     0.000,     0.000,     0.000,   1,1
   61,'1 ',1,   1,   1,   105.198,    32.988,     0.000,     0.000,     0.000,     0.000,   1,1
   62,'1 ',1,   1,   1,    97.318,    27.848,     0.000,     0.000,     0.000,     0.000,   1,1
   63,'1 ',1,   1,   1,    71.162,    22.113,     0.000,     0.000,     0.000,     0.000,   1,1
   64,'1 ',1,   1,   1,   172.008,    47.356,     0.000,     0.000,     0.000,     0.000,   1,1
   65,'1 ',1,   1,   1,    58.681,    18.168,     0.000,     0.000,     0.000,     0.000,   1,1
   66,'1 ',1,   1,   1,    70.026,    20.364,     0.000,     0.000,     0.000,     0.000,   1,1
   67,'1 ',1,   1,   1,    86.572,    24.748,     0.000,     0.000,     0.000,     0.000,   1,1
   68,'1 ',1,   1,   1,   108.403,    29.277,     0.000,     0.000,     0.000,     0.000,   1,1
   69,'1 ',1,   1,   1,    53.869,    18.330,     0.000,     0.000,     0.000,     0.000,   1,1
   70,'1 ',1,   1,   1,    81.501,    27.128,     0.000,     0.000,     0.000,     0.000,   1,1
   71,'1 ',1,   1,   1,    61.899,    21.131,     0.000,     0.000,     0.000,     0.000,   1,1
   72,'1 ',1,   1,   1,    54.280,    18.928,     0.000,     0.000,     0.000,     0.000,   1,1
   73,'1 ',1,   1,   1,    65.806,    21.693,     0.000,     0.000,     0.000,     0.000,   1,1
   74,'1 ',1,   1,   1,    73.062,    19.809,     0.000,     0.000,     0.000,     0.000,   1,1
   75,'1 ',1,   1,   1,    78.968,    25.029,     0.000,     0.000,     0.000,     0.000,   1,1
   76,'1 ',1,   1,   1,   109.134,    24.608,     0.000,     0.000,     0.000,     0.000,   1,1
   77,'1 ',1,   1,   1,    75.071,    19.867,     0.000,     0.000,     0.000,     0.000,   1,1
   78,'1 ',1,   1,   1,    94.217,    24.319,     0.000,     0.000,     0.000,     0.000,   1,1
   79,'1 ',1,   1,   1,   128.729,    33.305,     0.000,     0.000,     0.000,     0.000,   1,1
   80,'1 ',1,   1,   1,   102.590,    24.095,     0.000,     0.000,     0.000,     0.000,   1,1
   81,'1 ',1,   1,   1,   110.796,    25.217,     0.000,     0.000,     0.000,     0.000,   1,1
   82,'1 ',1,   1,   1,    73.196,    21.464,     0.000,     0.000,     0.000,     0.000,   1,1
   83,'1 ',1,   1,   1,    77.074,    24.204,     0.000,     0.000,     0.000,     0.000,   1,1
   84,'1 ',1,   1,   1,    56.833,    15.381,     0.000,     0.000,     0.000,     0.000,   1,1
   85,'1 ',1,   1,   1,    64.489,    19.147,     0.000,     0.000,     0.000,     0.000,   1,1
   86,'1 ',1,   1,   1,   106.774,    29.215,     0.000,     0.000,     0.000,     0.000,   1,1
   87,'1 ',1,   1,   1,   120.928,    33.535,     0.000,     0.000,     0.000,     0.000,   1,1
   88,'1 ',1,   1,   1,    93.003,    29.155,     0.000,     0.000,     0.000,     0.000,   1,1
   89,'1 ',1,   1,   1,    70.639,    21.363,     0.000,     0.000,     0.000,     0.000,   1,1
   90,'1 ',1,   1,   1,    63.777,    23.084,     0.000,     0.000,     0.000,     0.000,   1,1
   91,'1 ',1,   1,   1,    79.804,    21.872,     0.000,     0.000,     0.000,     0.000,   1,1
   92,'1 ',1,   1,   1,    74.027,    21.561,     0.000,     0.000,     0.000,     0.000,   1,1
   93,'1 ',1,   1,   1,    85.824,    22.405,     0.000,     0.000,     0.000,     0.000,   1,1
   94,'1 ',1,   1,   1,   107.484,    31.154,     0.000,     0.000,     0.000,     0.000,   1,1
   95,'1 ',1,   1,   1,    96.895,    26.576,     0.000,     0.000,     0.000,     0.000,   1,1
   96,'1 ',1,   1,   1,   112.114,    27.863,     0.000,     0.000,     0.000,     0.000,   1,1
   97,'1 ',1,   1,   1,   110.291,    29.200,     0.000,     0.000,     0.000,     0.000,   1,1
   98,'1 ',1,   1,   1,   114.743,    30.468,     0.000,     0.000,     0.000,     0.000,   1,1
   99,'1 ',1,   1,   1,   109.884,    26.725,     0.000,     0.000,     0.000,     0.000,   1,1
  100,'1 ',1,   1,   1,    82.744,    25.997,     0.000,     0.000,     0.000,     0.000,   1,1
  101,'1 ',1,   1,   1,    78.712,    24.082,     0.000,     0.000,     0.000,     0.000,   1,1
  102,'1 ',1,   1,   1,    48.772,    17.370,     0.000,     0.000,     0.000,     0.000,   1,1
  103,'1 ',1,   1,   1,   131.393,    32.382,     0.000,     0.000,     0.000,     0.000,   1,1
  104,'1 ',1,   1,   1,    91.854,    23.101,     0.000,     0.000,     0.000,     0.000,   1,1
  105,'1 ',1,   1,   1,    65.875,    18.139,     0.000,     0.000,     0.000,     0.000,   1,1
  106,'1 ',1,   1,   1,    65.820,    22.707,     0.000,     0.000,     0.000,     0.000,   1,1
  107,'1 ',1,   1,   1,    79.236,    20.813,     0.000,     0.000,     0.000,     0.000,   1,1
  108,'1 ',1,   1,   1,   136.022,    32.701,     0.000,     0.000,     0.000,     0.000,   1,1
  109,'1 ',1,   1,   1,    99.975,    31.284,     0.000,     0.000,     0.000,     0.000,   1,1
  110,'1 ',1,   1,   1,    49.922,    17.980,     0.000,     0.000,     0.000,     0.000,   1,1
  111,'1 ',1,   1,   1,    95.632,    26.689,     0.000,     0.000,     0.000,     0.000,   1,1
  112,'1 ',1,   1,   1,   132.185,    33.823,     0.000,     0.000,     0.000,     0.000,   1,1
  113,'1 ',1,   1,   1,    48.028,    16.207,     0.000,     0.000,     0.000,     0.000,   1,1
  114,'1 ',1,   1,   1,    51.184,    17.098,     0.000,     0.000,     0.000,     0.000,   1,1
  115,'1 ',1,   1,   1,    58.434,    19.216,     0.000,     0.000,     0.000,     0.000,   1,1
  116,'1 ',1,   1,   1,   117.863,    29.119,     0.000,     0.000,     0.000,     0.000,   1,1
  117,'1 ',1,   1,   1,    87.818,    22.582,     0.000,     0.000,     0.000,     0.000,   1,1
  118,'1 ',1,   1,   1,    49.890,    19.022,     0.000,     0.000,     0.000,     0.000,   1,1
  119,'1 ',1,   1,   1,   111.651,    30.156,     0.000,     0.000,     0.000,     0.000,   1,1
  120,'1 ',1,   1,   1,    65.955,    17.254,     0.000,     0.000,     0.000,     0.000,   1,1
  121,'1 ',1,   1,   1,    82.056,    20.724,     0.000,     0.000,     0.000,     0.000,   1,1
  122,'1 ',1,   1,   1,    65.985,    19.524,     0.000,     0.000,     0.000,     0.000,   1,1
  123,'1 ',1,   1,   1,   100.852,    28.911,     0.000,     0.000,     0.000,     0.000,   1,1
  124,'1 ',1,   1,   1,   102.516,    26.341,     0.000,     0.000,     0.000,     0.000,   1,1
  125,'1 ',1,   1,   1,   106.910,    28.872,     0.000,     0.000,     0.000,     0.000,   1,1
  126,'1 ',1,   1,   1,    87.470,    25.444,     0.000,     0.000,     0.000,     0.000,   1,1
  127,'1 ',1,   1,   1,   102.268,    24.020,     0.000,     0.000,     0.000,     0.000,   1,1
  128,'1 ',1,   1,   1,   112.172,    24.664,     0.000,     0.000,     0.000,     0.000,   1,1
  129,'1 ',1,   1,   1,    81.157,    21.775,     0.000,     0.000,     0.000,     0.000,   1,1
  130,'1 ',1,   1,   1,    90.341,    25.909,     0.000,     0.000,     0.000,     0.000,   1,1
  131,'1 ',1,   1,   1,   125.248,    28.461,     0.000,     0.000,     0.000,     0.000,   1,1
  132,'1 ',1,   1,   1,   115.649,    24.197,     0.000,     0.000,     0.000,     0.000,   1,1
  133,'1 ',1,   1,   1,    70.861,    19.550,     0.000,     0.000,     0.000,     0.000,   1,1
  134,'1 ',1,   1,   1,    85.864,    19.899,     0.000,     0.000,     0.000,     0.000,   1,1
  135,'1 ',1,   1,   1,    61.615,    20.833,     0.000,     0.000,     0.000,     0.000,   1,1
  136,'1 ',1,   1,   1,    76.306,    21.060,     0.000,     0.000,     0.000,     0.000,   1,1
  137,'1 ',1,   1,   1,    60.203,    22.246,     0.000,     0.000,     0.000,     0.000,   1,1
  138,'1 ',1,   1,   1,   109.301,    27.263,     0.000,     0.000,     0.000,     0.000,   1,1
  139,'1 ',1,   1,   1,    93.509,    25.278,     0.000,     0.000,     0.000,     0.000,   1,1
  140,'1 ',1,   1,   1,   126.167,    31.056,     0.000,     0.000,     0.000,     0.000,   1,1
  141,'1 ',1,   1,   1,   112.648,    28.666,     0.000,     0.000,     0.000,     0.000,   1,1
  142,'1 ',1,   1,   1,    72.389,    20.573,     0.000,     0.000,     0.000,     0.000,   1,1
  143,'1 ',1,   1,   1,   107.107,    28.886,     0.000,     0.000,     0.000,     0.000,   1,1
  144,'1 ',1,   1,   1,   128.943,    28.559,     0.000,     0.000,     0.000,     0.000,   1,1
  145,'1 ',1,   1,   1,    97.754,    25.126,     0.000,     0.000,     0.000,     0.000,   1,1
  146,'1 ',1,   1,   1,   105.160,    26.869,     0.000,     0.000,     0.000,     0.000,   1,1
  147,'1 ',1,   1,   1,    61.700,    17.033,     0.000,     0.000,     0.000,     0.000,   1,1
  148,'1 ',1,   1,   1,    74.241,    20.344,     0.000,     0.000,     0.000,     0.000,   1,1
  149,'1 ',1,   1,   1,   132.991,    29.372,     0.000,     0.000,     0.000,     0.000,   1,1
  150,'1 ',1,   1,   1,    92.875,    23.479,     0.000,     0.000,     0.000,     0.000,   1,1
  151,'1 ',1,   1,   1,    76.579,    23.001,     0.000,     0.000,     0.000,     0.000,   1,1
  152,'1 ',1,   1,   1,    60.731,    15.946,     0.000,     0.000,     0.000,     0.000,   1,1
  153,'1 ',1,   1,   1,    71.566,    22.780,     0.000,     0.000,     0.000,     0.000,   1,1
  154,'1 ',1,   1,   1,    89.556,    25.827,     0.000,     0.000,     0.000,     0.000,   1,1
  155,'1 ',1,   1,   1,    88.453,    28.273,     0.000,     0.000,     0.000,     0.000,   1,1
  156,'1 ',1,   1,   1,    91.197,    26.290,     0.000,     0.000,     0.000,     0.000,   1,1
  157,'1 ',1,   1,   1,    90.551,    28.407,     0.000,     0.000,     0.000,     0.000,   1,1
  158,'1 ',1,   1,   1,    90.828,    22.216,     0.000,     0.000,     0.000,     0.000,   1,1
  159,'1 ',1,   1,   1,    94.707,    25.396,     0.000,     0.000,     0.000,     0.000,   1,1
  160,'1 ',1,   1,   1,   116.938,    33.756,     0.000,     0.000,     0.000,     0.000,   1,1
  161,'1 ',1,   1,   1,    56.552,    16.816,     0.000,     0.000,     0.000,     0.000,   1,1
  162,'1 ',1,   1,   1,    84.290,    24.336,     0.000,     0.000,     0.000,     0.000,   1,1
  163,'1 ',1,   1,   1,   110.774,    35.064,     0.000,     0.000,     0.000,     0.000,   1,1
  164,'1 ',1,   1,   1,    79.538,    26.224,     0.000,     0.000,     0.000,     0.000,   1,1
  165,'1 ',1,   1,   1,    86.691,    23.663,     0.000,     0.000,     0.000,     0.000,   1,1
  166,'1 ',1,   1,   1,    80.957,    23.306,     0.000,     0.000,     0.000,     0.000,   1,1
  167,'1 ',1,   1,   1,    80.843,    21.687,     0.000,     0.000,     0.000,     0.000,   1,1
  168,'1 ',1,   1,   1,    51.692,    18.434,     0.000,     0.000,     0.000,     0.000,   1,1
  169,'1 ',1,   1,   1,    86.411,    26.963,     0.000,     0.000,     0.000,     0.000,   1,1
  170,'1 ',1,   1,   1,    90.253,    28.081,     0.000,     0.000,     0.000,     0.000,   1,1
  171,'1 ',1,   1,   1,    76.432,    20.960,     0.000,     0.000,     0.000,     0.000,   1,1
  172,'1 ',1,   1,   1,    90.844,    26.638,     0.000,     0.000,     0.000,     0.000,   1,1
  173,'1 ',1,   1,   1,    78.362,    23.086,     0.000,     0.000,     0.000,     0.000,   1,1
  174,'1 ',1,   1,   1,    98.200,    28.292,     0.000,     0.000,     0.000,     0.000,   1,1
  175,'1 ',1,   1,   1,    76.510,    24.866,     0.000,     0.000,     0.000,     0.000,   1,1
  176,'1 ',1,   1,   1,    97.206,    29.882,     0.000,     0.000,     0.000,     0.000,   1,1
  177,'1 ',1,   1,   1,   143.841,    46.766,     0.000,     0.000,     0.000,     0.000,   1,1
  178,'1 ',1,   1,   1,    71.634,    19.908,     0.000,     0.000,     0.000,     0.000,   1,1
  179,'1 ',1,   1,   1,     6.820,     1.947,     0.000,     0.000,     0.000,     0.000,   1,1
  180,'1 ',1,   1,   1,    10.314,     2.891,     0.000,     0.000,     0.000,     0.000,   1,1
  181,'1 ',1,   1,   1,     0.000,     0.000,     0.000,     0.000,     0.000,     0.000,   1,1
  182,'1 ',1,   1,   1,     0.000,     0.000,     0.000,     0.000,     0.000,     0.000,   1,1
  183,'1 ',1,   1,   1,     0.000,     0.000,     0.000,     0.000,     0.000,     0.000,   1,1
  184,'1 ',1,   1,   1,     0.000,     0.000,     0.000,     0.000,     0.000,     0.000,   1,1
  185,'1 ',1,   1,   1,     0.000,     0.000,     0.000,     0.000,     0.000,     0.000,   1,1
  186,'1 ',1,   1,   1,     0.000,     0.000,     0.000,     0.000,     0.000,     0.000,   1,1
  187,'1 ',1,   1,   1,     0.000,     0.000,     0.000,     0.000,     0.000,     0.000,   1,1
  188,'1 ',1,   1,   1,     0.000,     0.000,     0.000,     0.000,     0.000,     0.000,   1,1
  189,'1 ',1,   1,   1,     0.000,     0.000,     0.000,     0.000,     0.000,     0.000,   1,1
  190,'1 ',1,   1,   1,     0.000,     0.000,     0.000,     0.000,     0.000,     0.000,   1,1
  191,'1 ',1,   1,   1,     0.000,     0.000,     0.000,     0.000,     0.000,     0.000,   1,1
  192,'1 ',1,   1,   1,     0.000,     0.000,     0.000,     0.000,     0.000,     0.000,   1,1
  193,'1 ',1,   1,   1,     0.000,     0.000,     0.000,     0.000,     0.000,     0.000,   1,1
  194,'1 ',1,   1,   1,     0.000,     0.000,     0.000,     0.000,     0.000,     0.000,   1,1
  195,'1 ',1,   1,   1,     0.000,     0.000,     0.000,     0.000,     0.000,     0.000,   1,1
  196,'1 ',1,   1,   1,     0.000,     0.000,     0.000,     0.000,     0.000,     0.000,   1,1
  197,'1 ',1,   1,   1,     0.000,     0.000,     0.000,     0.000,     0.000,     0.000,   1,1
  198,'1 ',1,   1,   1,     0.000,     0.000,     0.000,     0.000,     0.000,     0.000,   1,1
  199,'1 ',1,   1,   1,     0.000,     0.000,     0.000,     0.000,     0.000,     0.000,   1,1
  200,'1 ',1,   1,   1,     0.000,     0.000,     0.000,     0.000,     0.000,     0.000,   1,1
...
0 / END OF LOAD DATA, BEGIN FIXED SHUNT DATA
0 / END OF FIXED SHUNT DATA, BEGIN GENERATOR DATA
    1,'1 ',     3.806,   -52.000,    35.000,   -52.000,1.02000,    0,   100.000,   0.00000,   1.00000,   0.00000,   0.00000,1.00000,1,  100.0,   338.000,     3.000,   1,1.0000,   0,1.0000,   0,1.0000,   0,1.0000,1, 1.0000
    3,'1 ',   378.031,   -26.975,   157.000,  -141.000,1.02000,    0,   100.000,   0.00000,   1.00000,   0.00000,   0.00000,1.00000,1,  100.0,   686.000,   298.000,   1,1.0000,   0,1.0000,   0,1.0000,   0,1.0000,0, 1.0000
    7,'1 ',   176.330,   157.056,   169.000,  -138.000,1.02000,    0,   100.000,   0.00000,   1.00000,   0.00000,   0.00000,1.00000,1,  100.0,   674.000,   139.000,   1,1.0000,   0,1.0000,   0,1.0000,   0,1.0000,0, 1.0000
    8,'1 ',   239.758,   107.347,   240.000,  -125.000,1.02000,    0,   100.000,   0.00000,   1.00000,   0.00000,   0.00000,1.00000,1,  100.0,   611.000,   189.000,   1,1.0000,   0,1.0000,   0,1.0000,   0,1.0000,0, 1.0000
   10,'1 ',  1965.075,   135.967,   594.000,  -242.000,1.02000,    0,   100.000,   0.00000,   1.00000,   0.00000,   0.00000,1.00000,1,  100.0,  2271.000,  1406.000,   1,1.0000,   0,1.0000,   0,1.0000,   0,1.0000,0, 1.0000
   24,'1 ',   365.345,   114.000,   114.000,  -108.000,1.02000,    0,   100.000,   0.00000,   1.00000,   0.00000,   0.00000,1.00000,1,  100.0,   541.000,   288.000,   1,1.0000,   0,1.0000,   0,1.0000,   0,1.0000,0, 1.0000
   26,'1 ',   152.227,   -25.337,    81.000,   -66.000,1.02000,    0,   100.000,   0.00000,   1.00000,   0.00000,   0.00000,1.00000,1,  100.0,   300.000,   120.000,   1,1.0000,   0,1.0000,   0,1.0000,   0,1.0000,0, 1.0000
   28,'1 ',   274.009,    67.757,   181.000,  -120.000,1.02000,    0,   100.000,   0.00000,   1.00000,   0.00000,   0.00000,1.00000,1,  100.0,   592.000,   216.000,   1,1.0000,   0,1.0000,   0,1.0000,   0,1.0000,0, 1.0000
   30,'1 ',   158.570,   -59.000,    89.000,   -59.000,1.02000,    0,   100.000,   0.00000,   1.00000,   0.00000,   0.00000,1.00000,1,  100.0,   263.000,   125.000,   1,1.0000,   0,1.0000,   0,1.0000,   0,1.0000,0, 1.0000
   31,'1 ',   305.723,    38.634,   179.000,  -165.000,1.02000,    0,   100.000,   0.00000,   1.00000,   0.00000,   0.00000,1.00000,1,  100.0,   800.000,   241.000,   1,1.0000,   0,1.0000,   0,1.0000,   0,1.0000,0, 1.0000
   32,'1 ',   206.775,     4.110,   171.000,  -140.000,1.02000,    0,   100.000,   0.00000,   1.00000,   0.00000,   0.00000,1.00000,1,  100.0,   683.000,   163.000,   1,1.0000,   0,1.0000,   0,1.0000,   0,1.0000,0, 1.0000
   33,'1 ',   480.784,   193.373,   202.000,  -134.000,1.02000,    0,   100.000,   0.00000,   1.00000,   0.00000,   0.00000,1.00000,1,  100.0,   664.000,   379.000,   1,1.0000,   0,1.0000,   0,1.0000,   0,1.0000,0, 1.0000
   34,'1 ',   374.225,   102.122,   391.000,  -136.000,1.02000,    0,   100.000,   0.00000,   1.00000,   0.00000,   0.00000,1.00000,1,  100.0,  1237.000,   295.000,   1,1.0000,   0,1.0000,   0,1.0000,   0,1.0000,0, 1.0000
   35,'1 ',  1172.150,   244.703,   416.000,  -151.000,1.02000,    0,   100.000,   0.00000,   1.00000,   0.00000,   0.00000,1.00000,1,  100.0,  1386.000,   924.000,   1,1.0000,   0,1.0000,   0,1.0000,   0,1.0000,0, 1.0000
   36,'1 ',   177.598,    71.021,   142.000,  -117.000,1.02000,    0,   100.000,   0.00000,   1.00000,   0.00000,   0.00000,1.00000,1,  100.0,   588.000,   140.000,   1,1.0000,   0,1.0000,   0,1.0000,   0,1.0000,0, 1.0000
   37,'1 ',   126.856,    35.147,   213.000,  -116.000,1.02000,    0,   100.000,   0.00000,   1.00000,   0.00000,   0.00000,1.00000,1,  100.0,   567.000,   100.000,   1,1.0000,   0,1.0000,   0,1.0000,   0,1.0000,0, 1.0000
   38,'1 ',   263.861,    11.388,   202.000,  -178.000,1.02000,    0,   100.000,   0.00000,   1.00000,   0.00000,   0.00000,1.00000,1,  100.0,   872.000,   208.000,   1,1.0000,   0,1.0000,   0,1.0000,   0,1.0000,0, 1.0000
   49,'1 ',   405.939,    83.905,   164.000,  -129.000,1.02000,    0,   100.000,   0.00000,   1.00000,   0.00000,   0.00000,1.00000,1,  100.0,   607.000,   320.000,   1,1.0000,   0,1.0000,   0,1.0000,   0,1.0000,0, 1.0000
   52,'1 ',   205.507,   137.724,   630.000,  -166.000,1.02000,    0,   100.000,   0.00000,   1.00000,   0.00000,   0.00000,1.00000,1,  100.0,  1642.000,   162.000,   1,1.0000,   0,1.0000,   0,1.0000,   0,1.0000,0, 1.0000
   54,'1 ',   263.861,    10.328,   198.000,  -113.000,1.02000,    0,   100.000,   0.00000,   1.00000,   0.00000,   0.00000,1.00000,1,  100.0,   546.000,   208.000,   1,1.0000,   0,1.0000,   0,1.0000,   0,1.0000,0, 1.0000
   56,'1 ',   527.721,   143.896,   151.000,  -150.000,1.02000,    0,   100.000,   0.00000,   1.00000,   0.00000,   0.00000,1.00000,1,  100.0,   728.000,   416.000,   1,1.0000,   0,1.0000,   0,1.0000,   0,1.0000,0, 1.0000
   69,'1 ',   189.016,    99.864,   150.000,  -103.000,1.02000,    0,   100.000,   0.00000,   1.00000,   0.00000,   0.00000,1.00000,1,  100.0,   520.000,   149.000,   1,1.0000,   0,1.0000,   0,1.0000,   0,1.0000,0, 1.0000
   72,'1 ',   107.828,    79.000,    79.000,   -57.000,1.02000,    0,   100.000,   0.00000,   1.00000,   0.00000,   0.00000,1.00000,1,  100.0,   263.000,    85.000,   1,1.0000,   0,1.0000,   0,1.0000,   0,1.0000,0, 1.0000
   76,'1 ',   551.824,   154.070,   278.000,  -182.000,1.02000,    0,   100.000,   0.00000,   1.00000,   0.00000,   0.00000,1.00000,1,  100.0,   882.000,   435.000,   1,1.0000,   0,1.0000,   0,1.0000,   0,1.0000,0, 1.0000
   78,'1 ',   164.913,   -62.000,    52.000,   -62.000,1.02000,    0,   100.000,   0.00000,   1.00000,   0.00000,   0.00000,1.00000,1,  100.0,   288.000,   130.000,   1,1.0000,   0,1.0000,   0,1.0000,   0,1.0000,0, 1.0000
   80,'1 ',   143.347,   -67.000,   175.000,   -67.000,1.02000,    0,   100.000,   0.00000,   1.00000,   0.00000,   0.00000,1.00000,1,  100.0,   578.000,   113.000,   1,1.0000,   0,1.0000,   0,1.0000,   0,1.0000,0, 1.0000
   82,'1 ',   223.267,   -58.000,   119.000,   -58.000,1.02000,    0,   100.000,   0.00000,   1.00000,   0.00000,   0.00000,1.00000,1,  100.0,   313.000,   176.000,   1,1.0000,   0,1.0000,   0,1.0000,   0,1.0000,0, 1.0000
   84,'1 ',   214.387,     7.340,   194.000,  -180.000,1.02000,    0,   100.000,   0.00000,   1.00000,   0.00000,   0.00000,1.00000,1,  100.0,   888.000,   169.000,   1,1.0000,   0,1.0000,   0,1.0000,   0,1.0000,0, 1.0000
  103,'1 ',   263.861,   192.280,   212.000,  -188.000,1.02000,    0,   100.000,   0.00000,   1.00000,   0.00000,   0.00000,1.00000,1,  100.0,   916.000,   208.000,   1,1.0000,   0,1.0000,   0,1.0000,   0,1.0000,0, 1.0000
  120,'1 ',   204.238,   196.000,   196.000,  -172.000,1.02000,    0,   100.000,   0.00000,   1.00000,   0.00000,   0.00000,1.00000,1,  100.0,   845.000,   161.000,   1,1.0000,   0,1.0000,   0,1.0000,   0,1.0000,0, 1.0000
  128,'1 ',   228.341,    18.943,   104.000,   -76.000,1.02000,    0,   100.000,   0.00000,   1.00000,   0.00000,   0.00000,1.00000,1,  100.0,   378.000,   180.000,   1,1.0000,   0,1.0000,   0,1.0000,   0,1.0000,0, 1.0000
  130,'1 ',   145.884,    87.000,    87.000,   -56.000,1.02000,    0,   100.000,   0.00000,   1.00000,   0.00000,   0.00000,1.00000,1,  100.0,   267.000,   115.000,   1,1.0000,   0,1.0000,   0,1.0000,   0,1.0000,0, 1.0000
  141,'1 ',  1112.528,   240.992,   452.000,  -174.000,1.02000,    0,   100.000,   0.00000,   1.00000,   0.00000,   0.00000,1.00000,1,  100.0,  1691.000,   877.000,   1,1.0000,   0,1.0000,   0,1.0000,   0,1.0000,0, 1.0000
  143,'1 ',   196.627,    97.788,    99.000,   -60.000,1.02000,    0,   100.000,   0.00000,   1.00000,   0.00000,   0.00000,1.00000,1,  100.0,   303.000,   155.000,   1,1.0000,   0,1.0000,   0,1.0000,   0,1.0000,0, 1.0000
  146,'1 ',   380.568,   137.000,   137.000,  -122.000,1.02000,    0,   100.000,   0.00000,   1.00000,   0.00000,   0.00000,1.00000,1,  100.0,   607.000,   300.000,   1,1.0000,   0,1.0000,   0,1.0000,   0,1.0000,0, 1.0000
  149,'1 ',   235.952,    46.193,    73.000,   -57.000,1.02000,    0,   100.000,   0.00000,   1.00000,   0.00000,   0.00000,1.00000,1,  100.0,   274.000,   186.000,   1,1.0000,   0,1.0000,   0,1.0000,   0,1.0000,0, 1.0000
  157,'1 ',   365.345,    67.410,   173.000,  -110.000,1.02000,    0,   100.000,   0.00000,   1.00000,   0.00000,   0.00000,1.00000,1,  100.0,   521.000,   288.000,   1,1.0000,   0,1.0000,   0,1.0000,   0,1.0000,0, 1.0000
  162,'1 ',   291.769,    97.939,   176.000,  -130.000,1.02000,    0,   100.000,   0.00000,   1.00000,   0.00000,   0.00000,1.00000,1,  100.0,   636.000,   230.000,   1,1.0000,   0,1.0000,   0,1.0000,   0,1.0000,0, 1.0000
  165,'1 ',   992.014,   102.017,   402.000,  -141.000,1.02000,    0,   100.000,   0.00000,   1.00000,   0.00000,   0.00000,1.00000,1,  100.0,  1304.000,   782.000,   1,1.0000,   0,1.0000,   0,1.0000,   0,1.0000,0, 1.0000
  166,'1 ',   351.391,   108.730,   202.000,  -168.000,1.02000,    0,   100.000,   0.00000,   1.00000,   0.00000,   0.00000,1.00000,1,  100.0,   830.000,   277.000,   1,1.0000,   0,1.0000,   0,1.0000,   0,1.0000,0, 1.0000
  175,'1 ',   265.129,    56.499,   233.000,  -128.000,1.02000,    0,   100.000,   0.00000,   1.00000,   0.00000,   0.00000,1.00000,1,  100.0,   626.000,   209.000,   1,1.0000,   0,1.0000,   0,1.0000,   0,1.0000,0, 1.0000
  176,'1 ',   109.096,    80.373,    86.000,   -56.000,1.02000,    0,   100.000,   0.00000,   1.00000,   0.00000,   0.00000,1.00000,1,  100.0,   267.000,    86.000,   1,1.0000,   0,1.0000,   0,1.0000,   0,1.0000,0, 1.0000
0 / END OF GENERATOR DATA, BEGIN BRANCH DATA
    1,     2,'1 ', 0.00598, 0.12062,1.98515, 414.51, 414.51, 414.51,  0.00000,  0.00000,  0.00000,  0.00000,1,1, 239.2,   1,1.0000,   0,1.0000,   0,1.0000,   0,1.0000
    2,    39,'1 ', 0.00868, 0.06020,0.52937, 530.03, 530.03, 530.03,  0.00000,  0.00000,  0.00000,  0.00000,1,1,  86.8,   1,1.0000,   0,1.0000,   0,1.0000,   0,1.0000
    2,   139,'1 ', 0.00339, 0.02318,0.20974, 530.03, 530.03, 530.03,  0.00000,  0.00000,  0.00000,  0.00000,1,1,  33.9,   1,1.0000,   0,1.0000,   0,1.0000,   0,1.0000
    2,   181,'1 ', 0.00761, 0.05275,0.46393, 530.03, 530.03, 530.03,  0.00000,  0.00000,  0.00000,  0.00000,1,1,  76.1,   1,1.0000,   0,1.0000,   0,1.0000,   0,1.0000
    2,   201,'1 ', 0.00274, 0.01875,0.16965, 530.03, 530.03, 530.03,  0.00000,  0.00000,  0.00000,  0.00000,1,1,  27.4,   1,1.0000,   0,1.0000,   0,1.0000,   0,1.0000
    3,    18,'1 ', 0.00383, 0.15813,0.09685, 316.20, 316.20, 316.20,  0.00000,  0.00000,  0.00000,  0.00000,1,1,  60.3,   1,1.0000,   0,1.0000,   0,1.0000,   0,1.0000
    4,    75,'1 ', 0.01684, 0.03812,0.00951, 107.32, 107.32, 107.32,  0.00000,  0.00000,  0.00000,  0.00000,1,1,   9.2,   1,1.0000,   0,1.0000,   0,1.0000,   0,1.0000
    5,     8,'1 ', 0.00296, 0.03933,0.08406, 578.83, 578.83, 578.83,  0.00000,  0.00000,  0.00000,  0.00000,1,1,  27.9,   1,1.0000,   0,1.0000,   0,1.0000,   0,1.0000
    5,   184,'1 ', 0.04502, 0.11101,0.17939, 178.87, 178.87, 178.87,  0.00000,  0.00000,  0.00000,  0.00000,1,1,  68.6,   1,1.0000,   0,1.0000,   0,1.0000,   0,1.0000
    5,   207,'1 ', 0.00112, 0.01328,0.03027, 541.39, 541.39, 541.39,  0.00000,  0.00000,  0.00000,  0.00000,1,1,   9.7,   1,1.0000,   0,1.0000,   0,1.0000,   0,1.0000
    6,     7,'1 ', 0.06200, 0.14575,0.03365, 107.32, 107.32, 107.32,  0.00000,  0.00000,  0.00000,  0.00000,1,1,  34.0,   1,1.0000,   0,1.0000,   0,1.0000,   0,1.0000
    6,    70,'1 ', 0.03364, 0.07769,0.01859, 107.32, 107.32, 107.32,  0.00000,  0.00000,  0.00000,  0.00000,1,1,  18.5,   1,1.0000,   0,1.0000,   0,1.0000,   0,1.0000
    8,    54,'1 ', 0.00033, 0.00508,0.01216, 665.28, 665.28, 665.28,  0.00000,  0.00000,  0.00000,  0.00000,1,1,   3.8,   1,1.0000,   0,1.0000,   0,1.0000,   0,1.0000
  187,     9,'1 ', 0.00684, 0.04742,0.41703, 530.03, 530.03, 530.03,  0.00000,  0.00000,  0.00000,  0.00000,1,1,  68.4,   1,1.0000,   0,1.0000,   0,1.0000,   0,1.0000
   10,    11,'1 ', 0.00032, 0.00856,0.00495, 566.01, 566.01, 566.01,  0.00000,  0.00000,  0.00000,  0.00000,1,1,   3.2,   1,1.0000,   0,1.0000,   0,1.0000,   0,1.0000
   10,    70,'1 ', 0.00580, 0.06727,0.02063, 324.83, 324.83, 324.83,  0.00000,  0.00000,  0.00000,  0.00000,1,1,  18.1,   1,1.0000,   0,1.0000,   0,1.0000,   0,1.0000
   11,   173,'1 ', 0.01667, 0.12408,0.03486, 237.35, 237.35, 237.35,  0.00000,  0.00000,  0.00000,  0.00000,1,1,  31.9,   1,1.0000,   0,1.0000,   0,1.0000,   0,1.0000
  188,    13,'1 ', 0.00011, 0.00195,0.02003,1045.73,1045.73,1045.73,  0.00000,  0.00000,  0.00000,  0.00000,1,1,   3.0,   1,1.0000,   0,1.0000,   0,1.0000,   0,1.0000
   13,   190,'1 ', 0.00085, 0.01791,0.26779,1060.07,1060.07,1060.07,  0.00000,  0.00000,  0.00000,  0.00000,1,1,  33.9,   1,1.0000,   0,1.0000,   0,1.0000,   0,1.0000
   14,    15,'1 ', 0.03611, 0.08904,0.14388, 178.87, 178.87, 178.87,  0.00000,  0.00000,  0.00000,  0.00000,1,1,  55.0,   1,1.0000,   0,1.0000,   0,1.0000,   0,1.0000
   14,   177,'1 ', 0.01882, 0.06776,0.11459, 229.46, 229.46, 229.46,  0.00000,  0.00000,  0.00000,  0.00000,1,1,  42.5,   1,1.0000,   0,1.0000,   0,1.0000,   0,1.0000
   15,    61,'1 ', 0.00413, 0.02750,0.05200, 353.36, 353.36, 353.36,  0.00000,  0.00000,  0.00000,  0.00000,1,1,  18.4,   1,1.0000,   0,1.0000,   0,1.0000,   0,1.0000
  184,    15,'1 ', 0.00343, 0.04204,0.08894, 541.39, 541.39, 541.39,  0.00000,  0.00000,  0.00000,  0.00000,1,1,  29.7,   1,1.0000,   0,1.0000,   0,1.0000,   0,1.0000
   16,   149,'1 ', 0.01423, 0.04695,0.01231, 137.68, 137.68, 137.68,  0.00000,  0.00000,  0.00000,  0.00000,1,1,  11.6,   1,1.0000,   0,1.0000,   0,1.0000,   0,1.0000
   17,    18,'1 ', 0.05670, 0.19450,0.04709, 137.68, 137.68, 137.68,  0.00000,  0.00000,  0.00000,  0.00000,1,1,  46.1,   1,1.0000,   0,1.0000,   0,1.0000,   0,1.0000
   17,   145,'1 ', 0.04673, 0.10452,0.02669, 107.32, 107.32, 107.32,  0.00000,  0.00000,  0.00000,  0.00000,1,1,  25.6,   1,1.0000,   0,1.0000,   0,1.0000,   0,1.0000
   19,    96,'1 ', 0.05510, 0.12952,0.02990, 107.32, 107.32, 107.32,  0.00000,  0.00000,  0.00000,  0.00000,1,1,  30.2,   1,1.0000,   0,1.0000,   0,1.0000,   0,1.0000
   19,   105,'1 ', 0.00053, 0.01276,0.00724, 522.03, 522.03, 522.03,  0.00000,  0.00000,  0.00000,  0.00000,1,1,   4.7,   1,1.0000,   0,1.0000,   0,1.0000,   0,1.0000
   19,   110,'1 ', 0.00509, 0.02371,0.00609, 173.53, 173.53, 173.53,  0.00000,  0.00000,  0.00000,  0.00000,1,1,   5.8,   1,1.0000,   0,1.0000,   0,1.0000,   0,1.0000
   19,   118,'1 ', 0.00064, 0.01345,0.00755, 474.70, 474.70, 474.70,  0.00000,  0.00000,  0.00000,  0.00000,1,1,   4.9,   1,1.0000,   0,1.0000,   0,1.0000,   0,1.0000
   19,   175,'1 ', 0.05620, 0.25162,0.07017, 173.53, 173.53, 173.53,  0.00000,  0.00000,  0.00000,  0.00000,1,1,  64.5,   1,1.0000,   0,1.0000,   0,1.0000,   0,1.0000
   21,   129,'1 ', 0.00698, 0.03501,0.01005, 187.39, 187.39, 187.39,  0.00000,  0.00000,  0.00000,  0.00000,1,1,   9.1,   1,1.0000,   0,1.0000,   0,1.0000,   0,1.0000
   21,   130,'1 ', 0.00738, 0.06070,0.01884, 261.01, 261.01, 261.01,  0.00000,  0.00000,  0.00000,  0.00000,1,1,  16.4,   1,1.0000,   0,1.0000,   0,1.0000,   0,1.0000
   22,    23,'1 ', 0.01398, 0.03448,0.05572, 178.87, 178.87, 178.87,  0.00000,  0.00000,  0.00000,  0.00000,1,1,  21.3,   1,1.0000,   0,1.0000,   0,1.0000,   0,1.0000
   23,    24,'1 ', 0.04301, 0.10605,0.17137, 178.87, 178.87, 178.87,  0.00000,  0.00000,  0.00000,  0.00000,1,1,  65.6,   1,1.0000,   0,1.0000,   0,1.0000,   0,1.0000
   23,    90,'1 ', 0.00690, 0.02037,0.03648, 206.75, 206.75, 206.75,  0.00000,  0.00000,  0.00000,  0.00000,1,1,  13.2,   1,1.0000,   0,1.0000,   0,1.0000,   0,1.0000
   23,    91,'1 ', 0.01279, 0.05439,0.09557, 262.53, 262.53, 262.53,  0.00000,  0.00000,  0.00000,  0.00000,1,1,  35.1,   1,1.0000,   0,1.0000,   0,1.0000,   0,1.0000
   24,   177,'1 ', 0.00208, 0.01428,0.02528, 353.36, 353.36, 353.36,  0.00000,  0.00000,  0.00000,  0.00000,1,1,   9.2,   1,1.0000,   0,1.0000,   0,1.0000,   0,1.0000
   25,   133,'1 ', 0.00613, 0.04868,0.09258, 395.58, 395.58, 395.58,  0.00000,  0.00000,  0.00000,  0.00000,1,1,  32.6,   1,1.0000,   0,1.0000,   0,1.0000,   0,1.0000
   25,   168,'1 ', 0.01816, 0.04527,0.07160, 178.87, 178.87, 178.87,  0.00000,  0.00000,  0.00000,  0.00000,1,1,  27.7,   1,1.0000,   0,1.0000,   0,1.0000,   0,1.0000
   26,    42,'1 ', 0.00714, 0.04949,0.43522, 530.03, 530.03, 530.03,  0.00000,  0.00000,  0.00000,  0.00000,1,1,  71.4,   1,1.0000,   0,1.0000,   0,1.0000,   0,1.0000
   26,    43,'1 ', 0.00133, 0.00911,0.08245, 530.03, 530.03, 530.03,  0.00000,  0.00000,  0.00000,  0.00000,1,1,  13.3,   1,1.0000,   0,1.0000,   0,1.0000,   0,1.0000
   26,   202,'1 ', 0.01045, 0.07245,0.63716, 530.03, 530.03, 530.03,  0.00000,  0.00000,  0.00000,  0.00000,1,1, 104.5,   1,1.0000,   0,1.0000,   0,1.0000,   0,1.0000
   27,   160,'1 ', 0.02217, 0.05468,0.08835, 178.87, 178.87, 178.87,  0.00000,  0.00000,  0.00000,  0.00000,1,1,  33.8,   1,1.0000,   0,1.0000,   0,1.0000,   0,1.0000
   28,    77,'1 ', 0.06656, 0.15647,0.03612, 107.32, 107.32, 107.32,  0.00000,  0.00000,  0.00000,  0.00000,1,1,  36.5,   1,1.0000,   0,1.0000,   0,1.0000,   0,1.0000
   28,    88,'1 ', 0.00116, 0.01860,0.00608, 418.29, 418.29, 418.29,  0.00000,  0.00000,  0.00000,  0.00000,1,1,   5.1,   1,1.0000,   0,1.0000,   0,1.0000,   0,1.0000
   29,    84,'1 ', 0.00955, 0.09168,0.02681, 283.00, 283.00, 283.00,  0.00000,  0.00000,  0.00000,  0.00000,1,1,  24.0,   1,1.0000,   0,1.0000,   0,1.0000,   0,1.0000
   39,    43,'1 ', 0.00577, 0.04003,0.35199, 530.03, 530.03, 530.03,  0.00000,  0.00000,  0.00000,  0.00000,1,1,  57.7,   1,1.0000,   0,1.0000,   0,1.0000,   0,1.0000
   40,    43,'1 ', 0.00360, 0.02314,0.23770, 530.03, 530.03, 530.03,  0.00000,  0.00000,  0.00000,  0.00000,1,1,  36.0,   1,1.0000,   0,1.0000,   0,1.0000,   0,1.0000
  202,    41,'1 ', 0.00271, 0.01880,0.16536, 530.03, 530.03, 530.03,  0.00000,  0.00000,  0.00000,  0.00000,1,1,  27.1,   1,1.0000,   0,1.0000,   0,1.0000,   0,1.0000
   42,   167,'1 ', 0.00687, 0.04934,0.40438, 530.03, 530.03, 530.03,  0.00000,  0.00000,  0.00000,  0.00000,1,1,  68.7,   1,1.0000,   0,1.0000,   0,1.0000,   0,1.0000
   44,    55,'1 ', 0.00742, 0.02703,0.04470, 229.46, 229.46, 229.46,  0.00000,  0.00000,  0.00000,  0.00000,1,1,  16.8,   1,1.0000,   0,1.0000,   0,1.0000,   0,1.0000
   45,    52,'1 ', 0.00089, 0.00836,0.07659, 652.53, 652.53, 652.53,  0.00000,  0.00000,  0.00000,  0.00000,1,1,  12.3,   1,1.0000,   0,1.0000,   0,1.0000,   0,1.0000
  206,    45,'1 ', 0.00042, 0.00286,0.02611, 530.03, 530.03, 530.03,  0.00000,  0.00000,  0.00000,  0.00000,1,1,   4.2,   1,1.0000,   0,1.0000,   0,1.0000,   0,1.0000
   45,   212,'1 ', 0.00103, 0.00976,0.08940, 652.53, 652.53, 652.53,  0.00000,  0.00000,  0.00000,  0.00000,1,1,  14.3,   1,1.0000,   0,1.0000,   0,1.0000,   0,1.0000
   46,    47,'1 ', 0.01683, 0.10628,0.02894, 212.01, 212.01, 212.01,  0.00000,  0.00000,  0.00000,  0.00000,1,1,  26.9,   1,1.0000,   0,1.0000,   0,1.0000,   0,1.0000
   47,    63,'1 ', 0.03810, 0.08957,0.02068, 107.32, 107.32, 107.32,  0.00000,  0.00000,  0.00000,  0.00000,1,1,  20.9,   1,1.0000,   0,1.0000,   0,1.0000,   0,1.0000
   48,   150,'1 ', 0.00352, 0.02444,0.21489, 530.03, 530.03, 530.03,  0.00000,  0.00000,  0.00000,  0.00000,1,1,  35.2,   1,1.0000,   0,1.0000,   0,1.0000,   0,1.0000
  182,    48,'1 ', 0.00342, 0.02370,0.20841, 530.03, 530.03, 530.03,  0.00000,  0.00000,  0.00000,  0.00000,1,1,  34.2,   1,1.0000,   0,1.0000,   0,1.0000,   0,1.0000
   49,    65,'1 ', 0.00180, 0.03771,0.02118, 474.70, 474.70, 474.70,  0.00000,  0.00000,  0.00000,  0.00000,1,1,  13.8,   1,1.0000,   0,1.0000,   0,1.0000,   0,1.0000
   50,    65,'1 ', 0.00526, 0.03751,0.01148, 237.35, 237.35, 237.35,  0.00000,  0.00000,  0.00000,  0.00000,1,1,  10.1,   1,1.0000,   0,1.0000,   0,1.0000,   0,1.0000
   51,    68,'1 ', 0.00406, 0.03734,0.01192, 283.00, 283.00, 283.00,  0.00000,  0.00000,  0.00000,  0.00000,1,1,  10.2,   1,1.0000,   0,1.0000,   0,1.0000,   0,1.0000
   51,    72,'1 ', 0.00071, 0.00719,0.00234, 304.04, 304.04, 304.04,  0.00000,  0.00000,  0.00000,  0.00000,1,1,   2.0,   1,1.0000,   0,1.0000,   0,1.0000,   0,1.0000
  183,    52,'1 ', 0.00205, 0.02164,0.20301, 707.51, 707.51, 707.51,  0.00000,  0.00000,  0.00000,  0.00000,1,1,  32.1,   1,1.0000,   0,1.0000,   0,1.0000,   0,1.0000
...